*HEADING
Kepler verification: slender cantilever (10x2 CPS4 mesh, plane stress)
** Reference (Euler-Bernoulli): delta = P*L^3/(3*E*I), I = b*h^3/12
*NODE
1, 0.00000000, 0.00000000, 0.
2, 1.00000000, 0.00000000, 0.
3, 2.00000000, 0.00000000, 0.
4, 3.00000000, 0.00000000, 0.
5, 4.00000000, 0.00000000, 0.
6, 5.00000000, 0.00000000, 0.
7, 6.00000000, 0.00000000, 0.
8, 7.00000000, 0.00000000, 0.
9, 8.00000000, 0.00000000, 0.
10, 9.00000000, 0.00000000, 0.
11, 10.00000000, 0.00000000, 0.
12, 0.00000000, 0.50000000, 0.
13, 1.00000000, 0.50000000, 0.
14, 2.00000000, 0.50000000, 0.
15, 3.00000000, 0.50000000, 0.
16, 4.00000000, 0.50000000, 0.
17, 5.00000000, 0.50000000, 0.
18, 6.00000000, 0.50000000, 0.
19, 7.00000000, 0.50000000, 0.
20, 8.00000000, 0.50000000, 0.
** ... 13 like lines cut
*ELEMENT, TYPE=CPS4, ELSET=BEAM
1, 1, 2, 13, 12
2, 2, 3, 14, 13
3, 3, 4, 15, 14
4, 4, 5, 16, 15
5, 5, 6, 17, 16
6, 6, 7, 18, 17
7, 7, 8, 19, 18
8, 8, 9, 20, 19
9, 9, 10, 21, 20
10, 10, 11, 22, 21
11, 12, 13, 24, 23
12, 13, 14, 25, 24
13, 14, 15, 26, 25
14, 15, 16, 27, 26
15, 16, 17, 28, 27
16, 17, 18, 29, 28
17, 18, 19, 30, 29
18, 19, 20, 31, 30
19, 20, 21, 32, 31
20, 21, 22, 33, 32
*MATERIAL, NAME=STEEL
*ELASTIC
200.e9, 0.3
*BOUNDARY
1, 1, 2
12, 1, 2
23, 1, 2
*CLOAD
11, 2, -500.
33, 2, -500.
*STEP, NAME=LOAD
*STATIC
*END STEP
