*HEADING
Kepler block compression fixture
*NODE
1, 0., 0., 0.
2, 1., 0., 0.
3, 1., 1., 0.
4, 0., 1., 0.
*ELEMENT, TYPE=CPS4, ELSET=BLOCK
1, 1, 2, 3, 4
*ELEMENT, TYPE=CPS3, ELSET=BLOCK
2, 1, 2, 3
*NSET, NSET=BASE
1, 2
*MATERIAL, NAME=STEEL
*ELASTIC
210000., 0.3
*DENSITY
7.85e-9
*BOUNDARY
1, 1, 2
*STEP, NAME=COMPRESS
*STATIC
*END STEP
